TRANSITIVEBUILT=NO
MKMK_DEVSTAGE=
MOD_LinkWith=M_JS0GROUP M_JS0BASEILB M_CATSysMultiThreading M_CATSysTS M_CATSysTSObjectModeler
MKMK_WARNING=
MKMK_ZIPJAVASOURCE=
GProtected=C:\Users\aidcadmin\Desktop\20210520\code\demo\.\DemoFW\ProtectedGenerated\win_b64
IProtected=C:\Users\aidcadmin\Desktop\20210520\code\demo\.\DemoFW\ProtectedInterfaces
MKMK_BSCMAKE=
M_CATSysTSObjectModeler=mkSharedLibrary "C:\Program Files\Dassault Systemes\B420\.\SystemTS\CATSysTSObjectModeler.m" CATSysTSObjectModeler CATSysTSObjectModeler - - - -
GLocal=C:\Users\aidcadmin\Desktop\20210520\code\demo\.\DemoFW\DemoM.m\LocalGenerated\win_b64
ILocal=C:\Users\aidcadmin\Desktop\20210520\code\demo\.\DemoFW\DemoM.m\LocalInterfaces
M_JS0BASEILB=mkSharedLibrary "C:\Program Files\Dassault Systemes\B420\.\SystemTS\JS0BASEILB.m" JS0BASEILB JS0BASEILB - - - -
IPublic=C:\Users\aidcadmin\Desktop\20210520\code\demo\.\DemoFW\PublicInterfaces
GPublic=C:\Users\aidcadmin\Desktop\20210520\code\demo\.\DemoFW\PublicGenerated\win_b64
MOD_INCPATH="C:\Users\aidcadmin\Desktop\20210520\code\demo\.\DemoFW\DemoM.m\src" "C:\Users\aidcadmin\Desktop\20210520\code\demo\.\DemoFW\DemoM.m\LocalInterfaces" "C:\Users\aidcadmin\Desktop\20210520\code\demo\.\DemoFW\DemoM.m\LocalGenerated\win_b64"
M_DemoM=mkLoadModule "C:\Users\aidcadmin\Desktop\20210520\code\demo\.\DemoFW\DemoM.m" DemoM DemoM - - - -
GPrivate=C:\Users\aidcadmin\Desktop\20210520\code\demo\.\DemoFW\PrivateGenerated\win_b64
IPrivate=C:\Users\aidcadmin\Desktop\20210520\code\demo\.\DemoFW\PrivateInterfaces
USE_PDB_FILE=YES
F_DemoFW=mkFramework "C:\Users\aidcadmin\Desktop\20210520\code\demo\.\DemoFW" DemoFW DemoFW - -
WSPATH=C:\Users\aidcadmin\Desktop\20210520\code\demo\.
MODPATH=C:\Users\aidcadmin\Desktop\20210520\code\demo\.\DemoFW\DemoM.m
FWNAME=DemoFW
WSROOT=C:\Users\aidcadmin\Desktop\20210520\code\demo\.
CONTNAME=DemoM
TARGETS_VALID=cppgrammar typelibgrammar compilation sourceruler cpponly link rmsmanifest clean runtimedata buildtimedata
WSENAME_msg=DemoFW\DemoM.m
M_JS0GROUP=mkSharedLibrary "C:\Program Files\Dassault Systemes\B420\.\System\JS0GROUP.m" JS0GROUP JS0GROUP - - - -
NAME=C:\Users\aidcadmin\Desktop\20210520\code\demo\.\DemoFW\DemoM.m\Objects\win_b64\.mkdata.mkb
STEPS_TO_BUILD=cppgrammar typelibgrammar compilation sourceruler cpponly link rmsmanifest runtimedata buildtimedata cscimplement DoxGrammar1st grammar1st
WSEKEY=M_DemoM
_MK_CLR_BLDCONF=MANAGED_CLR$(_MK_MSNET_VERS)
WIZARD_LINK_MODULES=JS0GROUP
FW_AllPreq=BSFBuildtimeData,21DD1140;SpecialAPI,21ED1151;System,21EE1151;SystemTS,20CC1131;
FWCOMPANYNAME=
BUILD=YES
MOD_Container=DemoM.m
WS_Concat="C:\Users\aidcadmin\Desktop\20210520\code\demo\." "C:\Program Files\Dassault Systemes\B420\."
FWmkHLpath=C:\Users\aidcadmin\Desktop\20210520\code\demo\.\DemoFW\IdentityCard\Objects\win_b64\.mkHLpath.mk
MOD_ObjectsPath=C:\Users\aidcadmin\Desktop\20210520\code\demo\.\DemoFW\DemoM.m\Objects\win_b64
RTViewDataListPath=C:\Users\aidcadmin\Desktop\20210520\code\demo\.\DemoFW\various\win_b64\DemoM.m\module.data
FWCOPYRIGHT=
TYPELATE=mkLoadModule
BUILT_OBJECT_TYPE=LOAD MODULE
IMAKEKEY_VALID=COMDYN_MODULE
TARGETS_MANDATORY=cscimplement
FW_INCPATH="C:\Users\aidcadmin\Desktop\20210520\code\demo\.\DemoFW\PrivateInterfaces" "C:\Users\aidcadmin\Desktop\20210520\code\demo\.\DemoFW\PrivateGenerated\win_b64" "C:\Users\aidcadmin\Desktop\20210520\code\demo\.\DemoFW\ProtectedInterfaces" "C:\Users\aidcadmin\Desktop\20210520\code\demo\.\DemoFW\ProtectedGenerated\win_b64" "C:\Users\aidcadmin\Desktop\20210520\code\demo\.\DemoFW\PublicInterfaces" "C:\Users\aidcadmin\Desktop\20210520\code\demo\.\DemoFW\PublicGenerated\win_b64"
MOD_SrcPath=C:\Users\aidcadmin\Desktop\20210520\code\demo\.\DemoFW\DemoM.m\src
DOC_RTViewDataListPath=C:\Users\aidcadmin\Desktop\20210520\code\demo\.\DemoFW\various\win_b64.doc\DemoM.m\module.data
LINK_WITH=JS0GROUP
MOD_Included=M_DemoM
M_CATSysTS=mkSharedLibrary "C:\Program Files\Dassault Systemes\B420\.\SystemTS\CATSysTS.m" CATSysTS CATSysTS - - - -
FWPATH=C:\Users\aidcadmin\Desktop\20210520\code\demo\.\DemoFW
MK_BUILD_CONFIGURATION=
MKMK_DEBUG=YES
STEPS_TO_CLEAN=
M_CATSysMultiThreading=mkSharedLibrary "C:\Program Files\Dassault Systemes\B420\.\SystemTS\CATSysMultiThreading.m" CATSysMultiThreading CATSysMultiThreading - - - -
MKMK_DEBUGEDITANDCONTINUE=
MKMK_DATA_VERSION=1.0.0
FWDNAME=DemoFW
MODNAME=DemoM
REAL_LINK_WITH=JS0GROUP JS0BASEILB CATSysMultiThreading CATSysTS CATSysTSObjectModeler
